73
Taken from page S19-22 of https://pubs.acs.org/doi/suppl/10.1021/jo502388r/suppl_file/jo502388r_si_001.pdf
Pd -0.034252 -0.685923 -0.117754
N -1.327625 1.060596 0.707424
N 1.454215 1.092822 0.150413
C -0.580767 2.110563 0.911044
H -1.008255 3.067772 1.194636
C 0.848303 2.087383 0.735094
H 1.388431 2.960921 1.088547
N 2.795495 1.124029 -0.010058
C 3.402142 0.372439 -1.123349
C 4.897030 0.547253 -0.795311
C 4.981664 1.998384 -0.295821
C 3.638991 2.242745 0.452549
H 3.100721 -0.670465 -1.041003
H 5.175918 -0.155393 -0.002680
H 5.535714 0.360713 -1.662131
H 5.053214 2.684156 -1.146323
H 5.840258 2.178168 0.355594
H 3.215215 3.203050 0.116939
N -2.670749 1.187262 0.773280
C -3.364943 2.475756 0.945343
C -4.834912 2.038666 1.207149
C -4.905435 0.587683 0.706986
C -3.518894 0.025843 1.076346
H -2.989192 3.005196 1.835259
H -5.038549 2.073562 2.282461
H -5.543322 2.702765 0.706226
H -5.032139 0.554565 -0.380448
H -5.719421 0.021940 1.166537
H -3.232398 -0.795275 0.419610
C 3.039637 0.872619 -2.519724
C 2.496849 1.715117 -5.152786
C 2.495731 2.138427 -2.768303
C 3.296581 0.029640 -3.611719
C 3.032417 0.446286 -4.915632
C 2.225878 2.557086 -4.074581
H 2.260856 2.802577 -1.942584
H 3.693001 -0.966921 -3.432960
H 3.236071 -0.223658 -5.746994
H 1.801179 3.543120 -4.245024
H 2.286574 2.039845 -6.168335
C 3.782894 2.301701 1.969166
C 4.179992 2.469371 4.746586
C 3.818050 1.140807 2.751519
C 3.944863 3.545190 2.594322
C 4.145194 3.631213 3.972902
C 4.014114 1.226725 4.131292
H 3.680498 0.171417 2.281648
H 3.915252 4.454730 1.996543
H 4.268971 4.604118 4.441436
H 4.036519 0.317552 4.726591
H 4.331578 2.532420 5.820805
C -3.209759 3.402731 -0.256827
C -3.063085 5.167151 -2.439926
C -3.241425 4.789405 -0.058658
C -3.098002 2.907862 -1.562322
C -3.024076 3.786434 -2.645164
C -3.172327 5.667821 -1.140941
H -3.322857 5.185513 0.952240
H -3.055715 1.835745 -1.732105
H -2.934692 3.387221 -3.652040
H -3.199028 6.740704 -0.968792
H -3.005210 5.848010 -3.284930
C -3.452596 -0.455851 2.525107
C -3.454154 -1.405094 5.177039
C -4.094013 -1.659046 2.857263
C -2.805874 0.257992 3.540224
C -2.805992 -0.212826 4.856929
C -4.097902 -2.129069 4.169510
H -4.579184 -2.237986 2.074918
H -2.283463 1.180474 3.307079
H -2.295828 0.355670 5.630376
H -4.597853 -3.064978 4.405415
H -3.453406 -1.772017 6.199895