154
10000.000000
  C  -0.740320   2.431360   2.148620 
  C  -1.299710   3.684950   2.174220 
  C  -2.677230   3.767020   2.163670 
  C  -3.361290   2.577840   2.197090 
  C  -2.783760   1.339200   2.140510 
  H  -0.742960   4.599260   2.216420 
  H  -3.173150   4.718510   2.170840 
  H  -4.414680   2.845570   2.355230 
  N  -1.440600   1.274590   2.124590 
  N   4.936480   2.323640   2.233210 
  C   0.719470   2.309460   2.116870 
  C   1.396300   1.245700   2.716150 
  C   2.784400   1.234690   2.733100 
  C   3.508050   2.292600   2.165330 
  C   2.826710   3.329500   1.527280 
  C   1.448470   3.332810   1.506620 
  H   0.875130   0.436070   3.217810 
  H   3.303290   0.416100   3.228700 
  H   3.362800   4.158830   1.074240 
  H   0.975780   4.173240   1.008630 
  C   7.089690  -1.284190   1.807470 
  C   6.000460  -1.021740   0.969600 
  C   5.297120   0.167180   1.100480 
  C   5.668520   1.107180   2.076770 
  C   6.754000   0.834430   2.917100 
  C   7.461550  -0.349830   2.780930 
  H   5.705320  -1.741320   0.209370 
  H   4.467730   0.366850   0.426630 
  H   7.043580   1.543620   3.688740 
  H   8.311430  -0.537540   3.433280 
  C   6.925980   6.022450   2.808050 
  C   7.469930   5.063110   1.956460 
  C   6.819300   3.846150   1.772520 
  C   5.620220   3.568840   2.445770 
  C   5.093070   4.543920   3.312460 
  C   5.737030   5.765950   3.485790 
  H   7.434530   6.972360   2.946040 
  H   8.399570   5.259920   1.429740 
  H   7.244040   3.118590   1.084590 
  H   4.176220   4.351830   3.864680 
  H   5.314060   6.512120   4.152500 
  C  13.066760  -7.899300   0.768650 
  C  14.050230  -6.913910   0.637930 
  C  13.715980  -5.570180   0.742800 
  C  12.392420  -5.176970   0.952900 
  H  13.344500  -8.948090   0.703600 
  H  15.085860  -7.202320   0.473570 
  H  14.493490  -4.812980   0.670460 
  H  12.156870  -4.123260   1.063730 
  C  11.723870  -7.525840   1.001180 
  C  11.396830  -6.169900   1.047290 
  N  10.025820  -6.082180   1.272720 
  C  10.523670  -8.261520   1.232200 
  C   9.475670  -7.355490   1.359000 
  C   8.142210  -7.788390   1.488320 
  C   7.882550  -9.160450   1.505900 
  C   8.910010 -10.105440   1.420050 
  C  10.236340  -9.636120   1.331940 
  H   7.315300  -7.087690   1.538950 
  H   6.845960  -9.486600   1.571950 
  H  11.065150 -10.338410   1.280880 
  C   7.837880  -2.519800   1.664860 
  C   7.658430  -3.558670   2.586110 
  C   8.377000  -4.740320   2.454390 
  C   9.288990  -4.878920   1.402000 
  C   9.477740  -3.848330   0.478160 
  C   8.747330  -2.673090   0.610060 
  H   6.963680  -3.442400   3.415040 
  H   8.248310  -5.520610   3.200710 
  H  10.156090  -3.957050  -0.364460 
  H   8.891410  -1.869920  -0.110160 
  C   7.696670 -12.076580   2.336560 
  C   7.382450 -13.430740   2.370600 
  C   7.984470 -14.299890   1.466660 
  C   8.604650 -11.555840   1.390370 
  H   7.233060 -11.420020   3.070760 
  H   6.679980 -13.808380   3.109100 
  H   7.737150 -15.358310   1.518160 
  C   9.198500 -12.446750   0.439930 
  C   8.893830 -13.828900   0.506080 
  C   9.501760 -14.721880  -0.395900 
  C  10.413350 -14.277970  -1.355190 
  C  10.707040 -12.929950  -1.450990 
  C  10.082000 -12.033070  -0.590500 
  H   9.272260 -15.784230  -0.355000 
  H  10.883970 -14.981470  -2.035350 
  H  11.412620 -12.560840  -2.190290 
  H  10.307850 -10.982520  -0.748650 
  C  -5.774690   1.054120   2.089730 
  C  -7.110500   1.095100   2.476940 
  C  -7.635870  -0.024490   3.062280 
  C  -6.845000  -1.165320   3.147220 
  H  -5.554380   1.938560   1.501310 
  H  -7.724870   1.966850   2.263630 
  H  -8.709580  -0.060110   3.259550 
  H  -7.359160  -2.050880   3.518320 
  C  -5.522470  -1.238300   2.609960 
  C  -4.881000  -0.027830   2.287100 
  N  -3.495510   0.000160   2.153080 
  N  -4.901570  -2.417750   2.350860 
  C  -3.523130  -2.463550   2.194300 
  C  -2.799450  -1.217960   2.157870 
  C  -1.384250  -1.377060   2.102120 
  C  -0.694290  -2.595670   2.105270 
  C  -1.395420  -3.767190   2.089930 
  C  -2.788110  -3.680280   2.095240 
  H  -0.682540  -0.565400   2.050190 
  H   0.398550  -2.614710   2.102100 
  H  -0.880570  -4.727350   2.077850 
  H  -3.231010  -4.681120   2.048640 
  N  -5.195900  -4.742560   2.674360 
  C  -5.670120  -3.618150   2.199320 
  N  -6.967150  -3.826420   1.677520 
  C  -6.036390  -5.729620   2.300830 
  C  -7.149010  -5.182970   1.699890 
  C  -8.131340  -5.958300   1.097470 
  C  -7.850000  -7.313000   1.026530 
  C  -6.932530  -7.945290   1.867150 
  C  -5.932190  -7.122500   2.443940 
  H  -9.043490  -5.547190   0.687860 
  H  -8.534870  -7.917030   0.422950 
  H  -5.079970  -7.531180   2.970690 
  C  -9.689390  -0.796180   0.712240 
  C -10.110030  -1.894280   1.458290 
  C  -9.236670  -2.960320   1.674480 
  C  -7.925010  -2.915350   1.144680 
  C  -7.533960  -1.855320   0.325790 
  C  -8.413810  -0.784080   0.136660 
  H -10.324270   0.088070   0.653630 
  H -11.082340  -1.872710   1.953120 
  H  -9.557330  -3.737430   2.369300 
  H  -6.533340  -1.784670  -0.089200 
  H  -8.067990   0.126760  -0.349890 
  C  -8.333390 -10.118520   2.262410 
  C  -8.232140 -11.528170   2.376590 
  C  -7.018150 -12.201630   2.541530 
  C  -5.837900 -11.490730   2.608440 
  C  -5.865820 -10.115010   2.420230 
  C  -7.070990  -9.397810   2.188060 
  H  -9.115300 -12.159510   2.346830 
  H  -7.007400 -13.284870   2.633900 
  H  -4.894710 -12.003430   2.778040 
  H  -4.902780  -9.610080   2.441000 
  C -12.196300  -8.214900   1.512390 
  C -11.110870  -7.486030   1.945160 
  C  -9.993980  -8.157450   2.463360 
  C  -9.737180  -9.509360   2.196440 
  C -10.892020 -10.231330   1.844790 
  C -12.120370  -9.597260   1.575390 
  H -13.102560  -7.711700   1.188450 
  H -11.123390  -6.401540   1.883320 
  H  -9.250230  -7.560410   2.978090 
  H -10.888730 -11.314360   1.775110 
  H -13.009390 -10.192370   1.385140 
