154
1   1_1_1_./Scratch/lib/28.xyz_1_1_./Scratch/lib/24.xyz
C         -0.74032        2.43136        2.14862
C         -1.29971        3.68495        2.17422
C         -2.67723        3.76702        2.16367
C         -3.36129        2.57784        2.19709
C         -2.78376        1.33920        2.14051
H         -0.74296        4.59926        2.21642
H         -3.17315        4.71851        2.17084
H         -4.41468        2.84557        2.35523
N         -1.44060        1.27459        2.12459
N          4.93648        2.32364        2.23321
C          0.71947        2.30946        2.11687
C          1.39630        1.24570        2.71615
C          2.78440        1.23469        2.73310
C          3.50805        2.29260        2.16533
C          2.82671        3.32950        1.52728
C          1.44847        3.33281        1.50662
H          0.87513        0.43607        3.21781
H          3.30329        0.41610        3.22870
H          3.36280        4.15883        1.07424
H          0.97578        4.17324        1.00863
C          7.08969       -1.28419        1.80747
C          6.00046       -1.02174        0.96960
C          5.29712        0.16718        1.10048
C          5.66852        1.10718        2.07677
C          6.75400        0.83443        2.91710
C          7.46155       -0.34983        2.78093
H          5.70532       -1.74132        0.20937
H          4.46773        0.36685        0.42663
H          7.04358        1.54362        3.68874
H          8.31143       -0.53754        3.43328
C          6.92598        6.02245        2.80805
C          7.46993        5.06311        1.95646
C          6.81930        3.84615        1.77252
C          5.62022        3.56884        2.44577
C          5.09307        4.54392        3.31246
C          5.73703        5.76595        3.48579
H          7.43453        6.97236        2.94604
H          8.39957        5.25992        1.42974
H          7.24404        3.11859        1.08459
H          4.17622        4.35183        3.86468
H          5.31406        6.51212        4.15250
C         13.06676       -7.89930        0.76865
C         14.05023       -6.91391        0.63793
C         13.71598       -5.57018        0.74280
C         12.39242       -5.17697        0.95290
H         13.34450       -8.94809        0.70360
H         15.08586       -7.20232        0.47357
H         14.49349       -4.81298        0.67046
H         12.15687       -4.12326        1.06373
C         11.72387       -7.52584        1.00118
C         11.39683       -6.16990        1.04729
N         10.02582       -6.08218        1.27272
C         10.52367       -8.26152        1.23220
C          9.47567       -7.35549        1.35900
C          8.14221       -7.78839        1.48832
C          7.88255       -9.16045        1.50590
C          8.91001      -10.10544        1.42005
C         10.23634       -9.63612        1.33194
H          7.31530       -7.08769        1.53895
H          6.84596       -9.48660        1.57195
H         11.06515      -10.33841        1.28088
C          7.83788       -2.51980        1.66486
C          7.65843       -3.55867        2.58611
C          8.37700       -4.74032        2.45439
C          9.28899       -4.87892        1.40200
C          9.47774       -3.84833        0.47816
C          8.74733       -2.67309        0.61006
H          6.96368       -3.44240        3.41504
H          8.24831       -5.52061        3.20071
H         10.15609       -3.95705       -0.36446
H          8.89141       -1.86992       -0.11016
C          7.69667      -12.07658        2.33656
C          7.38245      -13.43074        2.37060
C          7.98447      -14.29989        1.46666
C          8.60465      -11.55584        1.39037
H          7.23306      -11.42002        3.07076
H          6.67998      -13.80838        3.10910
H          7.73715      -15.35831        1.51816
C          9.19850      -12.44675        0.43993
C          8.89383      -13.82890        0.50608
C          9.50176      -14.72188       -0.39590
C         10.41335      -14.27797       -1.35519
C         10.70704      -12.92995       -1.45099
C         10.08200      -12.03307       -0.59050
H          9.27226      -15.78423       -0.35500
H         10.88397      -14.98147       -2.03535
H         11.41262      -12.56084       -2.19029
H         10.30785      -10.98252       -0.74865
C         -5.77469        1.05412        2.08973
C         -7.11050        1.09510        2.47694
C         -7.63587       -0.02449        3.06228
C         -6.84500       -1.16532        3.14722
H         -5.55438        1.93856        1.50131
H         -7.72487        1.96685        2.26363
H         -8.70958       -0.06011        3.25955
H         -7.35916       -2.05088        3.51832
C         -5.52247       -1.23830        2.60996
C         -4.88100       -0.02783        2.28710
N         -3.49551        0.00016        2.15308
N         -4.90157       -2.41775        2.35086
C         -3.52313       -2.46355        2.19430
C         -2.79945       -1.21796        2.15787
C         -1.38425       -1.37706        2.10212
C         -0.69429       -2.59567        2.10527
C         -1.39542       -3.76719        2.08993
C         -2.78811       -3.68028        2.09524
H         -0.68254       -0.56540        2.05019
H          0.39855       -2.61471        2.10210
H         -0.88057       -4.72735        2.07785
H         -3.23101       -4.68112        2.04864
N         -5.19590       -4.74256        2.67436
C         -5.67012       -3.61815        2.19932
N         -6.96715       -3.82642        1.67752
C         -6.03639       -5.72962        2.30083
C         -7.14901       -5.18297        1.69989
C         -8.13134       -5.95830        1.09747
C         -7.85000       -7.31300        1.02653
C         -6.93253       -7.94529        1.86715
C         -5.93219       -7.12250        2.44394
H         -9.04349       -5.54719        0.68786
H         -8.53487       -7.91703        0.42295
H         -5.07997       -7.53118        2.97069
C         -9.68939       -0.79618        0.71224
C        -10.11003       -1.89428        1.45829
C         -9.23667       -2.96032        1.67448
C         -7.92501       -2.91535        1.14468
C         -7.53396       -1.85532        0.32579
C         -8.41381       -0.78408        0.13666
H        -10.32427        0.08807        0.65363
H        -11.08234       -1.87271        1.95312
H         -9.55733       -3.73743        2.36930
H         -6.53334       -1.78467       -0.08920
H         -8.06799        0.12676       -0.34989
C         -8.33339      -10.11852        2.26241
C         -8.23214      -11.52817        2.37659
C         -7.01815      -12.20163        2.54153
C         -5.83790      -11.49073        2.60844
C         -5.86582      -10.11501        2.42023
C         -7.07099       -9.39781        2.18806
H         -9.11530      -12.15951        2.34683
H         -7.00740      -13.28487        2.63390
H         -4.89471      -12.00343        2.77804
H         -4.90278       -9.61008        2.44100
C        -12.19630       -8.21490        1.51239
C        -11.11087       -7.48603        1.94516
C         -9.99398       -8.15745        2.46336
C         -9.73718       -9.50936        2.19644
C        -10.89202      -10.23133        1.84479
C        -12.12037       -9.59726        1.57539
H        -13.10256       -7.71170        1.18845
H        -11.12339       -6.40154        1.88332
H         -9.25023       -7.56041        2.97809
H        -10.88873      -11.31436        1.77511
H        -13.00939      -10.19237        1.38514
