23
ligand.xyz
N          2.21273        1.63639        0.85700
N          1.14102       -0.17096        3.94095
C          3.15102        2.70257        0.53272
C          0.96613        2.16243        0.36080
O          1.00908        3.58624        0.48920
C          2.29101        3.97220        0.55564
C          2.18574        1.29962        2.27521
C          1.17657        0.17400        2.52683
C          2.26822       -0.59685        4.49027
O          2.65236        5.10722        0.62705
C         -0.01798       -0.03298        4.55197
H          3.17493        1.00944        2.66072
H          1.43860       -0.71626        1.95402
H          1.85410        2.18667        2.81964
H          0.18977        0.51049        2.20596
H         -0.84475        0.41066        4.03811
H         -0.10564       -0.29083        5.58851
H          3.53410        2.56272       -0.48397
H          3.99127        2.76298        1.21853
H          3.11966       -0.79118        3.87138
H          2.26619       -0.92368        5.51172
H          0.09853        1.78895        0.90593
H          0.86521        1.92220       -0.70720
23
ligand.xyz
N          2.21273        1.63639        0.85700
N          1.14102       -0.17096        3.94095
C          2.59301        0.51869        0.00352
C          3.19608        2.63288        0.51496
O          4.40547        1.95369        0.16618
C          4.10428        0.69640       -0.18772
C          2.18574        1.29962        2.27521
C          1.17657        0.17400        2.52683
C          2.26822       -0.59685        4.49027
O          4.89963       -0.10758       -0.56847
C         -0.01798       -0.03298        4.55197
H          3.17493        1.00944        2.66072
H          1.43860       -0.71626        1.95402
H          1.85410        2.18667        2.81964
H          0.18977        0.51049        2.20596
H         -0.84475        0.41066        4.03811
H         -0.10564       -0.29083        5.58851
H          2.10703        0.61614       -0.97336
H          2.34327       -0.45132        0.42390
H          3.11966       -0.79118        3.87138
H          2.26619       -0.92368        5.51172
H          3.40672        3.32259        1.33307
H          2.85777        3.19524       -0.36699
23
ligand.xyz
N          2.21273        1.63639        0.85700
N          1.14102       -0.17096        3.94095
C          0.92634        2.08921        0.34473
C          2.50827        0.51656       -0.00067
O          1.26731       -0.08615       -0.37792
C          0.28924        0.81863       -0.23130
C          2.18574        1.29962        2.27521
C          1.17657        0.17400        2.52683
C          2.26822       -0.59685        4.49027
O         -0.85638        0.62577       -0.50388
C         -0.01798       -0.03298        4.55197
H          3.17493        1.00944        2.66072
H          1.43860       -0.71626        1.95402
H          1.85410        2.18667        2.81964
H          0.18977        0.51049        2.20596
H         -0.84475        0.41066        4.03811
H         -0.10564       -0.29083        5.58851
H          1.08277        2.79951       -0.47440
H          0.30041        2.55694        1.09936
H          3.11966       -0.79118        3.87138
H          2.26619       -0.92368        5.51172
H          3.13009       -0.23806        0.48230
H          3.00202        0.87464       -0.91529
23
ligand.xyz
N          2.21273        1.63639        0.85700
N          1.54209       -1.01559        1.77100
C          3.15102        2.70257        0.53272
C          0.96613        2.16243        0.36080
O          1.00908        3.58624        0.48920
C          2.29101        3.97220        0.55564
C          2.18574        1.29962        2.27521
C          1.17657        0.17400        2.52683
C          2.72391       -1.55652        2.02477
O          2.65236        5.10722        0.62705
C          0.66142       -1.44872        0.89208
H          3.17493        1.00944        2.66072
H          0.17210        0.48185        2.23426
H          1.85410        2.18667        2.81964
H          1.16805       -0.05652        3.59301
H         -0.30489       -0.99352        0.83334
H          0.88689       -2.30939        0.29459
H          3.53410        2.56272       -0.48397
H          3.99127        2.76298        1.21853
H          3.41243       -1.04907        2.66835
H          3.05671       -2.39314        1.44212
H          0.09853        1.78895        0.90593
H          0.86521        1.92220       -0.70720
23
ligand.xyz
N          2.21273        1.63639        0.85700
N         -0.15878        0.58714        2.11921
C          2.59301        0.51869        0.00352
C          3.19608        2.63288        0.51496
O          4.40547        1.95369        0.16618
C          4.10428        0.69640       -0.18772
C          2.18574        1.29962        2.27521
C          1.17657        0.17400        2.52683
C         -0.67614        1.64737        2.72084
O          4.89963       -0.10758       -0.56847
C         -0.74035       -0.13787        1.18550
H          3.17493        1.00944        2.66072
H          1.15395       -0.09694        3.58296
H          1.85410        2.18667        2.81964
H          1.48055       -0.70309        1.95388
H         -0.19575       -0.91814        0.69661
H         -1.73133        0.10997        0.86128
H          2.10703        0.61614       -0.97336
H          2.34327       -0.45132        0.42390
H         -0.16741        2.08504        3.55474
H         -1.68243        1.94230        2.49595
H          3.40672        3.32259        1.33307
H          2.85777        3.19524       -0.36699
23
ligand.xyz
N          2.21273        1.63639        0.85700
N          1.54209       -1.01559        1.77100
C          3.15102        2.70257        0.53272
C          0.96613        2.16243        0.36080
O          1.00908        3.58624        0.48920
C          2.29101        3.97220        0.55564
C          2.18574        1.29962        2.27521
C          1.17657        0.17400        2.52683
C          1.60243       -0.90242        0.45295
O          2.65236        5.10722        0.62705
C          1.77706       -2.10791        2.46908
H          3.17493        1.00944        2.66072
H          0.17210        0.48185        2.23426
H          1.85410        2.18667        2.81964
H          1.16805       -0.05652        3.59301
H          1.79411       -2.06700        3.53793
H          2.03138       -3.01734        1.96228
H          3.53410        2.56272       -0.48397
H          3.99127        2.76298        1.21853
H          1.26858       -0.00100       -0.01795
H          1.80262       -1.77190       -0.14212
H          0.09853        1.78895        0.90593
H          0.86521        1.92220       -0.70720
23
ligand.xyz
N          2.21273        1.63639        0.85700
N         -0.15878        0.58714        2.11921
C          3.15102        2.70257        0.53272
C          0.96613        2.16243        0.36080
O          1.00908        3.58624        0.48920
C          2.29101        3.97220        0.55564
C          2.18574        1.29962        2.27521
C          1.17657        0.17400        2.52683
C         -0.67614        1.64737        2.72084
O          2.65236        5.10722        0.62705
C         -0.74035       -0.13787        1.18550
H          3.17493        1.00944        2.66072
H          1.15395       -0.09694        3.58296
H          1.85410        2.18667        2.81964
H          1.48055       -0.70309        1.95388
H         -0.19575       -0.91814        0.69661
H         -1.73133        0.10997        0.86128
H          3.53410        2.56272       -0.48397
H          3.99127        2.76298        1.21853
H         -0.16741        2.08504        3.55474
H         -1.68243        1.94230        2.49595
H          0.09853        1.78895        0.90593
H          0.86521        1.92220       -0.70720
   23

 N     2.212734     1.636388     0.856996
 N     0.972544    -0.016591     3.955831
 C     2.962203     0.683143     0.049594
 C     2.883266     2.878753     0.567390
 O     4.259777     2.585087     0.313339
 C     4.365013     1.296438    -0.040270
 C     2.185741     1.299621     2.275214
 C     1.176571     0.173996     2.526829
 C    -0.114527     0.518455     4.490350
 O     5.385385     0.762392    -0.352642
 C     1.895845    -0.704531     4.596092
 H     3.174931     1.009441     2.660717
 H     1.526138    -0.763625     2.093230
 H     1.854104     2.186668     2.819644
 H     0.230609     0.439692     2.052998
 H     2.686943    -1.175363     4.051208
 H     1.805659    -0.858685     5.652822
 H     2.538907     0.638759    -0.959771
 H     2.978066    -0.319507     0.467287
 H    -0.732152     1.164774     3.901648
 H    -0.265688     0.456978     5.550323
 H     2.824981     3.595943     1.386906
 H     2.458199     3.321686    -0.344567

