   23

 N     2.212734     1.636388     0.856996
 N     0.972544    -0.016591     3.955831
 C     2.962203     0.683143     0.049594
 C     2.883266     2.878753     0.567390
 O     4.259777     2.585087     0.313339
 C     4.365013     1.296438    -0.040270
 C     2.185741     1.299621     2.275214
 C     1.176571     0.173996     2.526829
 C    -0.114527     0.518455     4.490350
 O     5.385385     0.762392    -0.352642
 C     1.895845    -0.704531     4.596092
 H     3.174931     1.009441     2.660717
 H     1.526138    -0.763625     2.093230
 H     1.854104     2.186668     2.819644
 H     0.230609     0.439692     2.052998
 H     2.686943    -1.175363     4.051208
 H     1.805659    -0.858685     5.652822
 H     2.538907     0.638759    -0.959771
 H     2.978066    -0.319507     0.467287
 H    -0.732152     1.164774     3.901648
 H    -0.265688     0.456978     5.550323
 H     2.824981     3.595943     1.386906
 H     2.458199     3.321686    -0.344567
